<configuration>
    <input>
        <net-file value="phunhuan.net.xml"/>
        <route-files value="phunhuan.rou.xml"/>
        
    </input>
    <time>
        <begin value="0"/>
        <end value="10000"/>
    </time>
</configuration>