<?xml version="1.0" encoding="UTF-8"?>



<routes xmlns:xsi="http://www.w3.org/2001/XMLSchema-instance" xsi:noNamespaceSchemaLocation="http://sumo.dlr.de/xsd/routes_file.xsd">
    <vehicle id="1.0" depart="0.00" color="red">
        <route edges="615787306#8 615787306#9 32577828#0 32577828#1"/>
    </vehicle>
    <vehicle id="2.0" depart="0.00" color="yellow">
        <route edges="817909960#4 817909960#5 -817085858 32577828#0 32577828#1"/>
    </vehicle>
    <vehicle id="3.0" depart="0.00" color="green">
        <route edges="409101012#4 409101012#5 -817085858 32577828#0 32577828#1"/>
    </vehicle>
    <vehicle id="1.1" depart="2.40" color="red">
        <route edges="615787306#8 615787306#9 32577828#0 32577828#1"/>
    </vehicle>
    <vehicle id="2.1" depart="3.60" color="yellow">
        <route edges="817909960#4 817909960#5 -817085858 32577828#0 32577828#1"/>
    </vehicle>
    <vehicle id="1.2" depart="4.80" color="red">
        <route edges="615787306#8 615787306#9 32577828#0 32577828#1"/>
    </vehicle>
    <vehicle id="1.3" depart="7.20" color="red">
        <route edges="615787306#8 615787306#9 32577828#0 32577828#1"/>
    </vehicle>
    <vehicle id="2.2" depart="7.20" color="yellow">
        <route edges="817909960#4 817909960#5 -817085858 32577828#0 32577828#1"/>
    </vehicle>
    <vehicle id="3.1" depart="7.20" color="green">
        <route edges="409101012#4 409101012#5 -817085858 32577828#0 32577828#1"/>
    </vehicle>
    <vehicle id="1.4" depart="9.60" color="red">
        <route edges="615787306#8 615787306#9 32577828#0 32577828#1"/>
    </vehicle>
    <vehicle id="2.3" depart="10.80" color="yellow">
        <route edges="817909960#4 817909960#5 -817085858 32577828#0 32577828#1"/>
    </vehicle>
    <vehicle id="1.5" depart="12.00" color="red">
        <route edges="615787306#8 615787306#9 32577828#0 32577828#1"/>
    </vehicle>
    <vehicle id="1.6" depart="14.40" color="red">
        <route edges="615787306#8 615787306#9 32577828#0 32577828#1"/>
    </vehicle>
    <vehicle id="2.4" depart="14.40" color="yellow">
        <route edges="817909960#4 817909960#5 -817085858 32577828#0 32577828#1"/>
    </vehicle>
    <vehicle id="3.2" depart="14.40" color="green">
        <route edges="409101012#4 409101012#5 -817085858 32577828#0 32577828#1"/>
    </vehicle>
    <vehicle id="1.7" depart="16.80" color="red">
        <route edges="615787306#8 615787306#9 32577828#0 32577828#1"/>
    </vehicle>
    <vehicle id="2.5" depart="18.00" color="yellow">
        <route edges="817909960#4 817909960#5 -817085858 32577828#0 32577828#1"/>
    </vehicle>
    <vehicle id="1.8" depart="19.20" color="red">
        <route edges="615787306#8 615787306#9 32577828#0 32577828#1"/>
    </vehicle>
    <vehicle id="1.9" depart="21.60" color="red">
        <route edges="615787306#8 615787306#9 32577828#0 32577828#1"/>
    </vehicle>
    <vehicle id="2.6" depart="21.60" color="yellow">
        <route edges="817909960#4 817909960#5 -817085858 32577828#0 32577828#1"/>
    </vehicle>
    <vehicle id="3.3" depart="21.60" color="green">
        <route edges="409101012#4 409101012#5 -817085858 32577828#0 32577828#1"/>
    </vehicle>
    <vehicle id="1.10" depart="24.00" color="red">
        <route edges="615787306#8 615787306#9 32577828#0 32577828#1"/>
    </vehicle>
    <vehicle id="2.7" depart="25.20" color="yellow">
        <route edges="817909960#4 817909960#5 -817085858 32577828#0 32577828#1"/>
    </vehicle>
    <vehicle id="1.11" depart="26.40" color="red">
        <route edges="615787306#8 615787306#9 32577828#0 32577828#1"/>
    </vehicle>
    <vehicle id="1.12" depart="28.80" color="red">
        <route edges="615787306#8 615787306#9 32577828#0 32577828#1"/>
    </vehicle>
    <vehicle id="2.8" depart="28.80" color="yellow">
        <route edges="817909960#4 817909960#5 -817085858 32577828#0 32577828#1"/>
    </vehicle>
    <vehicle id="3.4" depart="28.80" color="green">
        <route edges="409101012#4 409101012#5 -817085858 32577828#0 32577828#1"/>
    </vehicle>
    <vehicle id="1.13" depart="31.20" color="red">
        <route edges="615787306#8 615787306#9 32577828#0 32577828#1"/>
    </vehicle>
    <vehicle id="2.9" depart="32.40" color="yellow">
        <route edges="817909960#4 817909960#5 -817085858 32577828#0 32577828#1"/>
    </vehicle>
    <vehicle id="1.14" depart="33.60" color="red">
        <route edges="615787306#8 615787306#9 32577828#0 32577828#1"/>
    </vehicle>
    <vehicle id="1.15" depart="36.00" color="red">
        <route edges="615787306#8 615787306#9 32577828#0 32577828#1"/>
    </vehicle>
    <vehicle id="2.10" depart="36.00" color="yellow">
        <route edges="817909960#4 817909960#5 -817085858 32577828#0 32577828#1"/>
    </vehicle>
    <vehicle id="3.5" depart="36.00" color="green">
        <route edges="409101012#4 409101012#5 -817085858 32577828#0 32577828#1"/>
    </vehicle>
    <vehicle id="1.16" depart="38.40" color="red">
        <route edges="615787306#8 615787306#9 32577828#0 32577828#1"/>
    </vehicle>
    <vehicle id="2.11" depart="39.60" color="yellow">
        <route edges="817909960#4 817909960#5 -817085858 32577828#0 32577828#1"/>
    </vehicle>
    <vehicle id="1.17" depart="40.80" color="red">
        <route edges="615787306#8 615787306#9 32577828#0 32577828#1"/>
    </vehicle>
    <vehicle id="1.18" depart="43.20" color="red">
        <route edges="615787306#8 615787306#9 32577828#0 32577828#1"/>
    </vehicle>
    <vehicle id="2.12" depart="43.20" color="yellow">
        <route edges="817909960#4 817909960#5 -817085858 32577828#0 32577828#1"/>
    </vehicle>
    <vehicle id="3.6" depart="43.20" color="green">
        <route edges="409101012#4 409101012#5 -817085858 32577828#0 32577828#1"/>
    </vehicle>
    <vehicle id="1.19" depart="45.60" color="red">
        <route edges="615787306#8 615787306#9 32577828#0 32577828#1"/>
    </vehicle>
    <vehicle id="2.13" depart="46.80" color="yellow">
        <route edges="817909960#4 817909960#5 -817085858 32577828#0 32577828#1"/>
    </vehicle>
    <vehicle id="1.20" depart="48.00" color="red">
        <route edges="615787306#8 615787306#9 32577828#0 32577828#1"/>
    </vehicle>
    <vehicle id="1.21" depart="50.40" color="red">
        <route edges="615787306#8 615787306#9 32577828#0 32577828#1"/>
    </vehicle>
    <vehicle id="2.14" depart="50.40" color="yellow">
        <route edges="817909960#4 817909960#5 -817085858 32577828#0 32577828#1"/>
    </vehicle>
    <vehicle id="3.7" depart="50.40" color="green">
        <route edges="409101012#4 409101012#5 -817085858 32577828#0 32577828#1"/>
    </vehicle>
    <vehicle id="1.22" depart="52.80" color="red">
        <route edges="615787306#8 615787306#9 32577828#0 32577828#1"/>
    </vehicle>
    <vehicle id="2.15" depart="54.00" color="yellow">
        <route edges="817909960#4 817909960#5 -817085858 32577828#0 32577828#1"/>
    </vehicle>
    <vehicle id="1.23" depart="55.20" color="red">
        <route edges="615787306#8 615787306#9 32577828#0 32577828#1"/>
    </vehicle>
    <vehicle id="1.24" depart="57.60" color="red">
        <route edges="615787306#8 615787306#9 32577828#0 32577828#1"/>
    </vehicle>
    <vehicle id="2.16" depart="57.60" color="yellow">
        <route edges="817909960#4 817909960#5 -817085858 32577828#0 32577828#1"/>
    </vehicle>
    <vehicle id="3.8" depart="57.60" color="green">
        <route edges="409101012#4 409101012#5 -817085858 32577828#0 32577828#1"/>
    </vehicle>
    <vehicle id="1.25" depart="60.00" color="red">
        <route edges="615787306#8 615787306#9 32577828#0 32577828#1"/>
    </vehicle>
    <vehicle id="2.17" depart="61.20" color="yellow">
        <route edges="817909960#4 817909960#5 -817085858 32577828#0 32577828#1"/>
    </vehicle>
    <vehicle id="1.26" depart="62.40" color="red">
        <route edges="615787306#8 615787306#9 32577828#0 32577828#1"/>
    </vehicle>
    <vehicle id="1.27" depart="64.80" color="red">
        <route edges="615787306#8 615787306#9 32577828#0 32577828#1"/>
    </vehicle>
    <vehicle id="2.18" depart="64.80" color="yellow">
        <route edges="817909960#4 817909960#5 -817085858 32577828#0 32577828#1"/>
    </vehicle>
    <vehicle id="3.9" depart="64.80" color="green">
        <route edges="409101012#4 409101012#5 -817085858 32577828#0 32577828#1"/>
    </vehicle>
    <vehicle id="1.28" depart="67.20" color="red">
        <route edges="615787306#8 615787306#9 32577828#0 32577828#1"/>
    </vehicle>
    <vehicle id="2.19" depart="68.40" color="yellow">
        <route edges="817909960#4 817909960#5 -817085858 32577828#0 32577828#1"/>
    </vehicle>
    <vehicle id="1.29" depart="69.60" color="red">
        <route edges="615787306#8 615787306#9 32577828#0 32577828#1"/>
    </vehicle>
    <vehicle id="1.30" depart="72.00" color="red">
        <route edges="615787306#8 615787306#9 32577828#0 32577828#1"/>
    </vehicle>
    <vehicle id="2.20" depart="72.00" color="yellow">
        <route edges="817909960#4 817909960#5 -817085858 32577828#0 32577828#1"/>
    </vehicle>
    <vehicle id="3.10" depart="72.00" color="green">
        <route edges="409101012#4 409101012#5 -817085858 32577828#0 32577828#1"/>
    </vehicle>
    <vehicle id="1.31" depart="74.40" color="red">
        <route edges="615787306#8 615787306#9 32577828#0 32577828#1"/>
    </vehicle>
    <vehicle id="2.21" depart="75.60" color="yellow">
        <route edges="817909960#4 817909960#5 -817085858 32577828#0 32577828#1"/>
    </vehicle>
    <vehicle id="1.32" depart="76.80" color="red">
        <route edges="615787306#8 615787306#9 32577828#0 32577828#1"/>
    </vehicle>
    <vehicle id="1.33" depart="79.20" color="red">
        <route edges="615787306#8 615787306#9 32577828#0 32577828#1"/>
    </vehicle>
    <vehicle id="2.22" depart="79.20" color="yellow">
        <route edges="817909960#4 817909960#5 -817085858 32577828#0 32577828#1"/>
    </vehicle>
    <vehicle id="3.11" depart="79.20" color="green">
        <route edges="409101012#4 409101012#5 -817085858 32577828#0 32577828#1"/>
    </vehicle>
    <vehicle id="1.34" depart="81.60" color="red">
        <route edges="615787306#8 615787306#9 32577828#0 32577828#1"/>
    </vehicle>
    <vehicle id="2.23" depart="82.80" color="yellow">
        <route edges="817909960#4 817909960#5 -817085858 32577828#0 32577828#1"/>
    </vehicle>
    <vehicle id="1.35" depart="84.00" color="red">
        <route edges="615787306#8 615787306#9 32577828#0 32577828#1"/>
    </vehicle>
    <vehicle id="1.36" depart="86.40" color="red">
        <route edges="615787306#8 615787306#9 32577828#0 32577828#1"/>
    </vehicle>
    <vehicle id="2.24" depart="86.40" color="yellow">
        <route edges="817909960#4 817909960#5 -817085858 32577828#0 32577828#1"/>
    </vehicle>
    <vehicle id="3.12" depart="86.40" color="green">
        <route edges="409101012#4 409101012#5 -817085858 32577828#0 32577828#1"/>
    </vehicle>
    <vehicle id="1.37" depart="88.80" color="red">
        <route edges="615787306#8 615787306#9 32577828#0 32577828#1"/>
    </vehicle>
    <vehicle id="2.25" depart="90.00" color="yellow">
        <route edges="817909960#4 817909960#5 -817085858 32577828#0 32577828#1"/>
    </vehicle>
    <vehicle id="1.38" depart="91.20" color="red">
        <route edges="615787306#8 615787306#9 32577828#0 32577828#1"/>
    </vehicle>
    <vehicle id="1.39" depart="93.60" color="red">
        <route edges="615787306#8 615787306#9 32577828#0 32577828#1"/>
    </vehicle>
    <vehicle id="2.26" depart="93.60" color="yellow">
        <route edges="817909960#4 817909960#5 -817085858 32577828#0 32577828#1"/>
    </vehicle>
    <vehicle id="3.13" depart="93.60" color="green">
        <route edges="409101012#4 409101012#5 -817085858 32577828#0 32577828#1"/>
    </vehicle>
    <vehicle id="1.40" depart="96.00" color="red">
        <route edges="615787306#8 615787306#9 32577828#0 32577828#1"/>
    </vehicle>
    <vehicle id="2.27" depart="97.20" color="yellow">
        <route edges="817909960#4 817909960#5 -817085858 32577828#0 32577828#1"/>
    </vehicle>
    <vehicle id="1.41" depart="98.40" color="red">
        <route edges="615787306#8 615787306#9 32577828#0 32577828#1"/>
    </vehicle>
    <vehicle id="1.42" depart="100.80" color="red">
        <route edges="615787306#8 615787306#9 32577828#0 32577828#1"/>
    </vehicle>
    <vehicle id="2.28" depart="100.80" color="yellow">
        <route edges="817909960#4 817909960#5 -817085858 32577828#0 32577828#1"/>
    </vehicle>
    <vehicle id="3.14" depart="100.80" color="green">
        <route edges="409101012#4 409101012#5 -817085858 32577828#0 32577828#1"/>
    </vehicle>
    <vehicle id="1.43" depart="103.20" color="red">
        <route edges="615787306#8 615787306#9 32577828#0 32577828#1"/>
    </vehicle>
    <vehicle id="2.29" depart="104.40" color="yellow">
        <route edges="817909960#4 817909960#5 -817085858 32577828#0 32577828#1"/>
    </vehicle>
    <vehicle id="1.44" depart="105.60" color="red">
        <route edges="615787306#8 615787306#9 32577828#0 32577828#1"/>
    </vehicle>
    <vehicle id="1.45" depart="108.00" color="red">
        <route edges="615787306#8 615787306#9 32577828#0 32577828#1"/>
    </vehicle>
    <vehicle id="2.30" depart="108.00" color="yellow">
        <route edges="817909960#4 817909960#5 -817085858 32577828#0 32577828#1"/>
    </vehicle>
    <vehicle id="3.15" depart="108.00" color="green">
        <route edges="409101012#4 409101012#5 -817085858 32577828#0 32577828#1"/>
    </vehicle>
    <vehicle id="1.46" depart="110.40" color="red">
        <route edges="615787306#8 615787306#9 32577828#0 32577828#1"/>
    </vehicle>
    <vehicle id="2.31" depart="111.60" color="yellow">
        <route edges="817909960#4 817909960#5 -817085858 32577828#0 32577828#1"/>
    </vehicle>
    <vehicle id="1.47" depart="112.80" color="red">
        <route edges="615787306#8 615787306#9 32577828#0 32577828#1"/>
    </vehicle>
    <vehicle id="1.48" depart="115.20" color="red">
        <route edges="615787306#8 615787306#9 32577828#0 32577828#1"/>
    </vehicle>
    <vehicle id="2.32" depart="115.20" color="yellow">
        <route edges="817909960#4 817909960#5 -817085858 32577828#0 32577828#1"/>
    </vehicle>
    <vehicle id="3.16" depart="115.20" color="green">
        <route edges="409101012#4 409101012#5 -817085858 32577828#0 32577828#1"/>
    </vehicle>
    <vehicle id="1.49" depart="117.60" color="red">
        <route edges="615787306#8 615787306#9 32577828#0 32577828#1"/>
    </vehicle>
    <vehicle id="2.33" depart="118.80" color="yellow">
        <route edges="817909960#4 817909960#5 -817085858 32577828#0 32577828#1"/>
    </vehicle>
    <vehicle id="1.50" depart="120.00" color="red">
        <route edges="615787306#8 615787306#9 32577828#0 32577828#1"/>
    </vehicle>
    <vehicle id="1.51" depart="122.40" color="red">
        <route edges="615787306#8 615787306#9 32577828#0 32577828#1"/>
    </vehicle>
    <vehicle id="2.34" depart="122.40" color="yellow">
        <route edges="817909960#4 817909960#5 -817085858 32577828#0 32577828#1"/>
    </vehicle>
    <vehicle id="3.17" depart="122.40" color="green">
        <route edges="409101012#4 409101012#5 -817085858 32577828#0 32577828#1"/>
    </vehicle>
    <vehicle id="1.52" depart="124.80" color="red">
        <route edges="615787306#8 615787306#9 32577828#0 32577828#1"/>
    </vehicle>
    <vehicle id="2.35" depart="126.00" color="yellow">
        <route edges="817909960#4 817909960#5 -817085858 32577828#0 32577828#1"/>
    </vehicle>
    <vehicle id="1.53" depart="127.20" color="red">
        <route edges="615787306#8 615787306#9 32577828#0 32577828#1"/>
    </vehicle>
    <vehicle id="1.54" depart="129.60" color="red">
        <route edges="615787306#8 615787306#9 32577828#0 32577828#1"/>
    </vehicle>
    <vehicle id="2.36" depart="129.60" color="yellow">
        <route edges="817909960#4 817909960#5 -817085858 32577828#0 32577828#1"/>
    </vehicle>
    <vehicle id="3.18" depart="129.60" color="green">
        <route edges="409101012#4 409101012#5 -817085858 32577828#0 32577828#1"/>
    </vehicle>
    <vehicle id="1.55" depart="132.00" color="red">
        <route edges="615787306#8 615787306#9 32577828#0 32577828#1"/>
    </vehicle>
    <vehicle id="2.37" depart="133.20" color="yellow">
        <route edges="817909960#4 817909960#5 -817085858 32577828#0 32577828#1"/>
    </vehicle>
    <vehicle id="1.56" depart="134.40" color="red">
        <route edges="615787306#8 615787306#9 32577828#0 32577828#1"/>
    </vehicle>
    <vehicle id="1.57" depart="136.80" color="red">
        <route edges="615787306#8 615787306#9 32577828#0 32577828#1"/>
    </vehicle>
    <vehicle id="2.38" depart="136.80" color="yellow">
        <route edges="817909960#4 817909960#5 -817085858 32577828#0 32577828#1"/>
    </vehicle>
    <vehicle id="3.19" depart="136.80" color="green">
        <route edges="409101012#4 409101012#5 -817085858 32577828#0 32577828#1"/>
    </vehicle>
    <vehicle id="1.58" depart="139.20" color="red">
        <route edges="615787306#8 615787306#9 32577828#0 32577828#1"/>
    </vehicle>
    <vehicle id="2.39" depart="140.40" color="yellow">
        <route edges="817909960#4 817909960#5 -817085858 32577828#0 32577828#1"/>
    </vehicle>
    <vehicle id="1.59" depart="141.60" color="red">
        <route edges="615787306#8 615787306#9 32577828#0 32577828#1"/>
    </vehicle>
    <vehicle id="1.60" depart="144.00" color="red">
        <route edges="615787306#8 615787306#9 32577828#0 32577828#1"/>
    </vehicle>
    <vehicle id="2.40" depart="144.00" color="yellow">
        <route edges="817909960#4 817909960#5 -817085858 32577828#0 32577828#1"/>
    </vehicle>
    <vehicle id="3.20" depart="144.00" color="green">
        <route edges="409101012#4 409101012#5 -817085858 32577828#0 32577828#1"/>
    </vehicle>
    <vehicle id="1.61" depart="146.40" color="red">
        <route edges="615787306#8 615787306#9 32577828#0 32577828#1"/>
    </vehicle>
    <vehicle id="2.41" depart="147.60" color="yellow">
        <route edges="817909960#4 817909960#5 -817085858 32577828#0 32577828#1"/>
    </vehicle>
    <vehicle id="1.62" depart="148.80" color="red">
        <route edges="615787306#8 615787306#9 32577828#0 32577828#1"/>
    </vehicle>
    <vehicle id="1.63" depart="151.20" color="red">
        <route edges="615787306#8 615787306#9 32577828#0 32577828#1"/>
    </vehicle>
    <vehicle id="2.42" depart="151.20" color="yellow">
        <route edges="817909960#4 817909960#5 -817085858 32577828#0 32577828#1"/>
    </vehicle>
    <vehicle id="3.21" depart="151.20" color="green">
        <route edges="409101012#4 409101012#5 -817085858 32577828#0 32577828#1"/>
    </vehicle>
    <vehicle id="1.64" depart="153.60" color="red">
        <route edges="615787306#8 615787306#9 32577828#0 32577828#1"/>
    </vehicle>
    <vehicle id="2.43" depart="154.80" color="yellow">
        <route edges="817909960#4 817909960#5 -817085858 32577828#0 32577828#1"/>
    </vehicle>
    <vehicle id="1.65" depart="156.00" color="red">
        <route edges="615787306#8 615787306#9 32577828#0 32577828#1"/>
    </vehicle>
    <vehicle id="1.66" depart="158.40" color="red">
        <route edges="615787306#8 615787306#9 32577828#0 32577828#1"/>
    </vehicle>
    <vehicle id="2.44" depart="158.40" color="yellow">
        <route edges="817909960#4 817909960#5 -817085858 32577828#0 32577828#1"/>
    </vehicle>
    <vehicle id="3.22" depart="158.40" color="green">
        <route edges="409101012#4 409101012#5 -817085858 32577828#0 32577828#1"/>
    </vehicle>
    <vehicle id="1.67" depart="160.80" color="red">
        <route edges="615787306#8 615787306#9 32577828#0 32577828#1"/>
    </vehicle>
    <vehicle id="2.45" depart="162.00" color="yellow">
        <route edges="817909960#4 817909960#5 -817085858 32577828#0 32577828#1"/>
    </vehicle>
    <vehicle id="1.68" depart="163.20" color="red">
        <route edges="615787306#8 615787306#9 32577828#0 32577828#1"/>
    </vehicle>
    <vehicle id="1.69" depart="165.60" color="red">
        <route edges="615787306#8 615787306#9 32577828#0 32577828#1"/>
    </vehicle>
    <vehicle id="2.46" depart="165.60" color="yellow">
        <route edges="817909960#4 817909960#5 -817085858 32577828#0 32577828#1"/>
    </vehicle>
    <vehicle id="3.23" depart="165.60" color="green">
        <route edges="409101012#4 409101012#5 -817085858 32577828#0 32577828#1"/>
    </vehicle>
    <vehicle id="1.70" depart="168.00" color="red">
        <route edges="615787306#8 615787306#9 32577828#0 32577828#1"/>
    </vehicle>
    <vehicle id="2.47" depart="169.20" color="yellow">
        <route edges="817909960#4 817909960#5 -817085858 32577828#0 32577828#1"/>
    </vehicle>
    <vehicle id="1.71" depart="170.40" color="red">
        <route edges="615787306#8 615787306#9 32577828#0 32577828#1"/>
    </vehicle>
    <vehicle id="1.72" depart="172.80" color="red">
        <route edges="615787306#8 615787306#9 32577828#0 32577828#1"/>
    </vehicle>
    <vehicle id="2.48" depart="172.80" color="yellow">
        <route edges="817909960#4 817909960#5 -817085858 32577828#0 32577828#1"/>
    </vehicle>
    <vehicle id="3.24" depart="172.80" color="green">
        <route edges="409101012#4 409101012#5 -817085858 32577828#0 32577828#1"/>
    </vehicle>
    <vehicle id="1.73" depart="175.20" color="red">
        <route edges="615787306#8 615787306#9 32577828#0 32577828#1"/>
    </vehicle>
    <vehicle id="2.49" depart="176.40" color="yellow">
        <route edges="817909960#4 817909960#5 -817085858 32577828#0 32577828#1"/>
    </vehicle>
    <vehicle id="1.74" depart="177.60" color="red">
        <route edges="615787306#8 615787306#9 32577828#0 32577828#1"/>
    </vehicle>
    <vehicle id="1.75" depart="180.00" color="red">
        <route edges="615787306#8 615787306#9 32577828#0 32577828#1"/>
    </vehicle>
    <vehicle id="2.50" depart="180.00" color="yellow">
        <route edges="817909960#4 817909960#5 -817085858 32577828#0 32577828#1"/>
    </vehicle>
    <vehicle id="3.25" depart="180.00" color="green">
        <route edges="409101012#4 409101012#5 -817085858 32577828#0 32577828#1"/>
    </vehicle>
    <vehicle id="1.76" depart="182.40" color="red">
        <route edges="615787306#8 615787306#9 32577828#0 32577828#1"/>
    </vehicle>
    <vehicle id="2.51" depart="183.60" color="yellow">
        <route edges="817909960#4 817909960#5 -817085858 32577828#0 32577828#1"/>
    </vehicle>
    <vehicle id="1.77" depart="184.80" color="red">
        <route edges="615787306#8 615787306#9 32577828#0 32577828#1"/>
    </vehicle>
    <vehicle id="1.78" depart="187.20" color="red">
        <route edges="615787306#8 615787306#9 32577828#0 32577828#1"/>
    </vehicle>
    <vehicle id="2.52" depart="187.20" color="yellow">
        <route edges="817909960#4 817909960#5 -817085858 32577828#0 32577828#1"/>
    </vehicle>
    <vehicle id="3.26" depart="187.20" color="green">
        <route edges="409101012#4 409101012#5 -817085858 32577828#0 32577828#1"/>
    </vehicle>
    <vehicle id="1.79" depart="189.60" color="red">
        <route edges="615787306#8 615787306#9 32577828#0 32577828#1"/>
    </vehicle>
    <vehicle id="2.53" depart="190.80" color="yellow">
        <route edges="817909960#4 817909960#5 -817085858 32577828#0 32577828#1"/>
    </vehicle>
    <vehicle id="1.80" depart="192.00" color="red">
        <route edges="615787306#8 615787306#9 32577828#0 32577828#1"/>
    </vehicle>
    <vehicle id="1.81" depart="194.40" color="red">
        <route edges="615787306#8 615787306#9 32577828#0 32577828#1"/>
    </vehicle>
    <vehicle id="2.54" depart="194.40" color="yellow">
        <route edges="817909960#4 817909960#5 -817085858 32577828#0 32577828#1"/>
    </vehicle>
    <vehicle id="3.27" depart="194.40" color="green">
        <route edges="409101012#4 409101012#5 -817085858 32577828#0 32577828#1"/>
    </vehicle>
    <vehicle id="1.82" depart="196.80" color="red">
        <route edges="615787306#8 615787306#9 32577828#0 32577828#1"/>
    </vehicle>
    <vehicle id="2.55" depart="198.00" color="yellow">
        <route edges="817909960#4 817909960#5 -817085858 32577828#0 32577828#1"/>
    </vehicle>
    <vehicle id="1.83" depart="199.20" color="red">
        <route edges="615787306#8 615787306#9 32577828#0 32577828#1"/>
    </vehicle>
    <vehicle id="1.84" depart="201.60" color="red">
        <route edges="615787306#8 615787306#9 32577828#0 32577828#1"/>
    </vehicle>
    <vehicle id="2.56" depart="201.60" color="yellow">
        <route edges="817909960#4 817909960#5 -817085858 32577828#0 32577828#1"/>
    </vehicle>
    <vehicle id="3.28" depart="201.60" color="green">
        <route edges="409101012#4 409101012#5 -817085858 32577828#0 32577828#1"/>
    </vehicle>
    <vehicle id="1.85" depart="204.00" color="red">
        <route edges="615787306#8 615787306#9 32577828#0 32577828#1"/>
    </vehicle>
    <vehicle id="2.57" depart="205.20" color="yellow">
        <route edges="817909960#4 817909960#5 -817085858 32577828#0 32577828#1"/>
    </vehicle>
    <vehicle id="1.86" depart="206.40" color="red">
        <route edges="615787306#8 615787306#9 32577828#0 32577828#1"/>
    </vehicle>
    <vehicle id="1.87" depart="208.80" color="red">
        <route edges="615787306#8 615787306#9 32577828#0 32577828#1"/>
    </vehicle>
    <vehicle id="2.58" depart="208.80" color="yellow">
        <route edges="817909960#4 817909960#5 -817085858 32577828#0 32577828#1"/>
    </vehicle>
    <vehicle id="3.29" depart="208.80" color="green">
        <route edges="409101012#4 409101012#5 -817085858 32577828#0 32577828#1"/>
    </vehicle>
    <vehicle id="1.88" depart="211.20" color="red">
        <route edges="615787306#8 615787306#9 32577828#0 32577828#1"/>
    </vehicle>
    <vehicle id="2.59" depart="212.40" color="yellow">
        <route edges="817909960#4 817909960#5 -817085858 32577828#0 32577828#1"/>
    </vehicle>
    <vehicle id="1.89" depart="213.60" color="red">
        <route edges="615787306#8 615787306#9 32577828#0 32577828#1"/>
    </vehicle>
    <vehicle id="1.90" depart="216.00" color="red">
        <route edges="615787306#8 615787306#9 32577828#0 32577828#1"/>
    </vehicle>
    <vehicle id="2.60" depart="216.00" color="yellow">
        <route edges="817909960#4 817909960#5 -817085858 32577828#0 32577828#1"/>
    </vehicle>
    <vehicle id="3.30" depart="216.00" color="green">
        <route edges="409101012#4 409101012#5 -817085858 32577828#0 32577828#1"/>
    </vehicle>
    <vehicle id="1.91" depart="218.40" color="red">
        <route edges="615787306#8 615787306#9 32577828#0 32577828#1"/>
    </vehicle>
    <vehicle id="2.61" depart="219.60" color="yellow">
        <route edges="817909960#4 817909960#5 -817085858 32577828#0 32577828#1"/>
    </vehicle>
    <vehicle id="1.92" depart="220.80" color="red">
        <route edges="615787306#8 615787306#9 32577828#0 32577828#1"/>
    </vehicle>
    <vehicle id="1.93" depart="223.20" color="red">
        <route edges="615787306#8 615787306#9 32577828#0 32577828#1"/>
    </vehicle>
    <vehicle id="2.62" depart="223.20" color="yellow">
        <route edges="817909960#4 817909960#5 -817085858 32577828#0 32577828#1"/>
    </vehicle>
    <vehicle id="3.31" depart="223.20" color="green">
        <route edges="409101012#4 409101012#5 -817085858 32577828#0 32577828#1"/>
    </vehicle>
    <vehicle id="1.94" depart="225.60" color="red">
        <route edges="615787306#8 615787306#9 32577828#0 32577828#1"/>
    </vehicle>
    <vehicle id="2.63" depart="226.80" color="yellow">
        <route edges="817909960#4 817909960#5 -817085858 32577828#0 32577828#1"/>
    </vehicle>
    <vehicle id="1.95" depart="228.00" color="red">
        <route edges="615787306#8 615787306#9 32577828#0 32577828#1"/>
    </vehicle>
    <vehicle id="1.96" depart="230.40" color="red">
        <route edges="615787306#8 615787306#9 32577828#0 32577828#1"/>
    </vehicle>
    <vehicle id="2.64" depart="230.40" color="yellow">
        <route edges="817909960#4 817909960#5 -817085858 32577828#0 32577828#1"/>
    </vehicle>
    <vehicle id="3.32" depart="230.40" color="green">
        <route edges="409101012#4 409101012#5 -817085858 32577828#0 32577828#1"/>
    </vehicle>
    <vehicle id="1.97" depart="232.80" color="red">
        <route edges="615787306#8 615787306#9 32577828#0 32577828#1"/>
    </vehicle>
    <vehicle id="2.65" depart="234.00" color="yellow">
        <route edges="817909960#4 817909960#5 -817085858 32577828#0 32577828#1"/>
    </vehicle>
    <vehicle id="1.98" depart="235.20" color="red">
        <route edges="615787306#8 615787306#9 32577828#0 32577828#1"/>
    </vehicle>
    <vehicle id="1.99" depart="237.60" color="red">
        <route edges="615787306#8 615787306#9 32577828#0 32577828#1"/>
    </vehicle>
    <vehicle id="2.66" depart="237.60" color="yellow">
        <route edges="817909960#4 817909960#5 -817085858 32577828#0 32577828#1"/>
    </vehicle>
    <vehicle id="3.33" depart="237.60" color="green">
        <route edges="409101012#4 409101012#5 -817085858 32577828#0 32577828#1"/>
    </vehicle>
    <vehicle id="1.100" depart="240.00" color="red">
        <route edges="615787306#8 615787306#9 32577828#0 32577828#1"/>
    </vehicle>
    <vehicle id="2.67" depart="241.20" color="yellow">
        <route edges="817909960#4 817909960#5 -817085858 32577828#0 32577828#1"/>
    </vehicle>
    <vehicle id="1.101" depart="242.40" color="red">
        <route edges="615787306#8 615787306#9 32577828#0 32577828#1"/>
    </vehicle>
    <vehicle id="1.102" depart="244.80" color="red">
        <route edges="615787306#8 615787306#9 32577828#0 32577828#1"/>
    </vehicle>
    <vehicle id="2.68" depart="244.80" color="yellow">
        <route edges="817909960#4 817909960#5 -817085858 32577828#0 32577828#1"/>
    </vehicle>
    <vehicle id="3.34" depart="244.80" color="green">