<?xml version="1.0" encoding="UTF-8"?>


<net version="1.9" junctionCornerDetail="5" limitTurnSpeed="5.50" xmlns:xsi="http://www.w3.org/2001/XMLSchema-instance" xsi:noNamespaceSchemaLocation="http://sumo.dlr.de/xsd/net_file.xsd">

    <location netOffset="-682574.38,-1193046.74" convBoundary="0.00,0.00,2418.67,3260.20" origBoundary="106.669908,10.788085,106.692019,10.817478" projParameter="+proj=utm +zone=48 +ellps=WGS84 +datum=WGS84 +units=m +no_defs"/>

    <type id="highway.bridleway" priority="1" numLanes="1" speed="2.78" allow="pedestrian" oneway="1" width="2.00"/>
    <type id="highway.bus_guideway" priority="1" numLanes="1" speed="27.78" allow="bus" oneway="1"/>
    <type id="highway.cycleway" priority="1" numLanes="1" speed="8.33" allow="bicycle" oneway="1" width="1.00"/>
    <type id="highway.footway" priority="1" numLanes="1" speed="2.78" allow="pedestrian" oneway="1" width="2.00"/>
    <type id="highway.ford" priority="1" numLanes="1" speed="2.78" allow="army" oneway="1"/>
    <type id="highway.living_street" priority="2" numLanes="1" speed="2.78" disallow="tram rail_urban rail rail_electric rail_fast ship" oneway="1"/>
    <type id="highway.motorway" priority="14" numLanes="2" speed="39.44" allow="private emergency authority army vip passenger hov taxi bus coach delivery truck trailer motorcycle evehicle custom1 custom2" oneway="1"/>
    <type id="highway.motorway_link" priority="9" numLanes="1" speed="22.22" allow="private emergency authority army vip passenger hov taxi bus coach delivery truck trailer motorcycle evehicle custom1 custom2" oneway="1"/>
    <type id="highway.path" priority="1" numLanes="1" speed="2.78" allow="pedestrian bicycle" oneway="1" width="2.00"/>
    <type id="highway.pedestrian" priority="1" numLanes="1" speed="2.78" allow="pedestrian" oneway="1" width="2.00"/>
    <type id="highway.primary" priority="12" numLanes="2" speed="27.78" disallow="tram rail_urban rail rail_electric rail_fast ship" oneway="1"/>
    <type id="highway.primary_link" priority="7" numLanes="1" speed="22.22" disallow="tram rail_urban rail rail_electric rail_fast ship" oneway="1"/>
    <type id="highway.raceway" priority="15" numLanes="2" speed="83.33" allow="vip" oneway="1"/>
    <type id="highway.residential" priority="3" numLanes="1" speed="13.89" disallow="tram rail_urban rail rail_electric rail_fast ship" oneway="1"/>
    <type id="highway.secondary" priority="11" numLanes="1" speed="27.78" disallow="tram rail_urban rail rail_electric rail_fast ship" oneway="1"/>
    <type id="highway.secondary_link" priority="6" numLanes="1" speed="22.22" disallow="tram rail_urban rail rail_electric rail_fast ship" oneway="1"/>
    <type id="highway.service" priority="1" numLanes="1" speed="5.56" allow="pedestrian delivery bicycle" oneway="1"/>
    <type id="highway.stairs" priority="1" numLanes="1" speed="1.39" allow="pedestrian" oneway="1" width="2.00"/>
    <type id="highway.step" priority="1" numLanes="1" speed="1.39" allow="pedestrian" oneway="1" width="2.00"/>
    <type id="highway.steps" priority="1" numLanes="1" speed="1.39" allow="pedestrian" oneway="1" width="2.00"/>
    <type id="highway.tertiary" priority="10" numLanes="1" speed="22.22" disallow="tram rail_urban rail rail_electric rail_fast ship" oneway="1"/>
    <type id="highway.tertiary_link" priority="5" numLanes="1" speed="22.22" disallow="tram rail_urban rail rail_electric rail_fast ship" oneway="1"/>
    <type id="highway.track" priority="1" numLanes="1" speed="5.56" allow="pedestrian motorcycle moped bicycle" oneway="1"/>
    <type id="highway.trunk" priority="13" numLanes="2" speed="27.78" disallow="pedestrian bicycle tram rail_urban rail rail_electric rail_fast ship" oneway="1"/>
    <type id="highway.trunk_link" priority="8" numLanes="1" speed="22.22" disallow="pedestrian bicycle tram rail_urban rail rail_electric rail_fast ship" oneway="1"/>
    <type id="highway.unclassified" priority="4" numLanes="1" speed="13.89" disallow="tram rail_urban rail rail_electric rail_fast ship" oneway="1"/>
    <type id="highway.unsurfaced" priority="1" numLanes="1" speed="8.33" disallow="tram rail_urban rail rail_electric rail_fast ship" oneway="1"/>
    <type id="railway.highspeed" priority="21" numLanes="1" speed="69.44" allow="rail_fast" oneway="1"/>
    <type id="railway.light_rail" priority="19" numLanes="1" speed="27.78" allow="rail_urban" oneway="1"/>
    <type id="railway.preserved" priority="16" numLanes="1" speed="27.78" allow="rail" oneway="1"/>
    <type id="railway.rail" priority="20" numLanes="1" speed="44.44" allow="rail" oneway="1"/>
    <type id="railway.subway" priority="18" numLanes="1" speed="27.78" allow="rail_urban" oneway="1"/>
    <type id="railway.tram" priority="17" numLanes="1" speed="13.89" allow="tram" oneway="1"/>

    <edge id=":1395052524_0" function="internal">
        <lane id=":1395052524_0_0" index="0" disallow="tram rail_urban rail rail_electric rail_fast ship" speed="13.89" length="14.65" shape="1409.78,1247.29 1395.13,1247.57"/>
    </edge>
    <edge id=":1395052524_1" function="internal">
        <lane id=":1395052524_1_0" index="0" disallow="tram rail_urban rail rail_electric rail_fast ship" speed="8.08" length="6.14" shape="1409.78,1247.29 1405.92,1246.90 1403.93,1245.80"/>
    </edge>
    <edge id=":1395052524_2" function="internal">
        <lane id=":1395052524_2_0" index="0" disallow="tram rail_urban rail rail_electric rail_fast ship" speed="3.65" length="2.34" shape="1409.78,1247.29 1408.54,1246.54 1408.11,1245.76"/>
    </edge>
    <edge id=":1395052524_9" function="internal">
        <lane id=":1395052524_9_0" index="0" disallow="tram rail_urban rail rail_electric rail_fast ship" speed="8.08" length="8.20" shape="1403.93,1245.80 1403.10,1245.34 1401.30,1242.61 1400.53,1238.71"/>
    </edge>
    <edge id=":1395052524_10" function="internal">
        <lane id=":1395052524_10_0" index="0" disallow="tram rail_urban rail rail_electric rail_fast ship" speed="3.65" length="2.34" shape="1408.11,1245.76 1408.47,1244.94 1409.63,1244.09"/>
    </edge>
    <edge id=":1395052524_3" function="internal">
        <lane id=":1395052524_3_0" index="0" disallow="tram rail_urban rail rail_electric rail_fast ship" speed="6.60" length="9.23" shape="1403.72,1238.52 1404.22,1241.05 1405.37,1242.82 1407.17,1243.84 1409.63,1244.09"/>
    </edge>
    <edge id=":1395052524_4" function="internal">
        <lane id=":1395052524_4_0" index="0" disallow="tram rail_urban rail rail_electric rail_fast ship" speed="7.89" length="14.44" shape="1403.72,1238.52 1403.38,1242.50 1401.84,1245.33 1399.09,1247.02 1395.13,1247.57"/>
    </edge>
    <edge id=":1395052524_5" function="internal">
        <lane id=":1395052524_5_0" index="0" disallow="tram rail_urban rail rail_electric rail_fast ship" speed="3.65" length="4.67" shape="1403.72,1238.52 1402.99,1239.77 1402.22,1240.21 1401.40,1239.86 1400.53,1238.71"/>
    </edge>
    <edge id=":1395052524_6" function="internal">
        <lane id=":1395052524_6_0" index="0" disallow="tram rail_urban rail rail_electric rail_fast ship" speed="6.37" length="9.04" shape="1395.15,1244.37 1397.63,1244.03 1399.35,1242.97 1400.32,1241.19 1400.53,1238.71"/>
    </edge>
    <edge id=":1395052524_7" function="internal">
        <lane id=":1395052524_7_0" index="0" disallow="tram rail_urban rail rail_electric rail_fast ship" speed="13.89" length="14.48" shape="1395.15,1244.37 1409.63,1244.09"/>
    </edge>
    <edge id=":1395052524_8" function="internal">
        <lane id=":1395052524_8_0" index="0" disallow="tram rail_urban rail rail_electric rail_fast ship" speed="3.65" length="2.34" shape="1395.15,1244.37 1396.35,1245.17 1396.74,1245.98"/>
    </edge>
    <edge id=":1395052524_11" function="internal">
        <lane id=":1395052524_11_0" index="0" disallow="tram rail_urban rail rail_electric rail_fast ship" speed="3.65" length="2.34" shape="1396.74,1245.98 1396.34,1246.77 1395.13,1247.57"/>
    </edge>
    <edge id=":1395538127_0" function="internal">
        <lane id=":1395538127_0_0" index="0" disallow="tram rail_urban rail rail_electric rail_fast ship" speed="4.16" length="1.33" shape="1386.96,893.00 1386.67,893.18 1386.44,893.41 1386.26,893.67 1386.13,893.99"/>
    </edge>
    <edge id=":1395538127_1" function="internal">
        <lane id=":1395538127_1_0" index="0" disallow="tram rail_urban rail rail_electric rail_fast ship" speed="6.56" length="3.98" shape="1383.06,893.09 1383.44,892.15 1383.98,891.34 1384.68,890.67 1385.55,890.13"/>
    </edge>
    <edge id=":1395538132_0" function="internal">
        <lane id=":1395538132_0_0" index="0" disallow="tram rail_urban rail rail_electric rail_fast ship" speed="13.89" length="14.79" shape="1444.35,968.21 1440.29,953.99"/>
    </edge>
    <edge id=":1395538132_1" function="internal">
        <lane id=":1395538132_1_0" index="0" disallow="tram rail_urban rail rail_electric rail_fast ship" speed="8.56" length="5.98" shape="1444.35,968.21 1443.80,964.52 1444.34,962.34"/>
    </edge>
    <edge id=":1395538132_2" function="internal">
        <lane id=":1395538132_2_0" index="0" disallow="tram rail_urban rail rail_electric rail_fast ship" speed="3.65" length="2.34" shape="1444.35,968.21 1444.76,966.82 1445.40,966.20"/>
    </edge>
    <edge id=":1395538132_9" function="internal">
        <lane id=":1395538132_9_0" index="0" disallow="tram rail_urban rail rail_electric rail_fast ship" speed="8.56" length="8.67" shape="1444.34,962.34 1444.59,961.32 1446.74,958.60 1450.25,956.37"/>
    </edge>
    <edge id=":1395538132_10" function="internal">
        <lane id=":1395538132_10_0" index="0" disallow="tram rail_urban rail rail_electric rail_fast ship" speed="3.65" length="2.34" shape="1445.40,966.20 1446.28,966.34 1447.41,967.25"/>
    </edge>
    <edge id=":1395538132_3" function="internal">
        <lane id=":1395538132_3_0" index="0" disallow="tram rail_urban rail rail_electric rail_fast ship" speed="7.17" length="10.00" shape="1451.62,959.26 1449.17,960.80 1447.64,962.65 1447.06,964.80 1447.41,967.25"/>
    </edge>
    <edge id=":1395538132_4" function="internal">
        <lane id=":1395538132_4_0" index="0" disallow="tram rail_urban rail rail_electric rail_fast ship" speed="7.70" length="14.96" shape="1451.62,959.26 1447.60,960.51 1444.36,960.05 1441.93,957.88 1440.29,953.99"/>
    </edge>
    <edge id=":1395538132_5" function="internal">
        <lane id=":1395538132_5_0" index="0" disallow="tram rail_urban rail rail_electric rail_fast ship" speed="3.65" length="4.67" shape="1451.62,959.26 1450.20,959.05 1449.49,958.50 1449.51,957.61 1450.25,956.37"/>
    </edge>
    <edge id=":1395538132_6" function="internal">
        <lane id=":1395538132_6_0" index="0" disallow="tram rail_urban rail rail_electric rail_fast ship" speed="6.14" length="9.06" shape="1443.39,953.18 1444.38,955.53 1445.85,956.85 1447.81,957.13 1450.25,956.37"/>
    </edge>
    <edge id=":1395538132_7" function="internal">
        <lane id=":1395538132_7_0" index="0" disallow="tram rail_urban rail rail_electric rail_fast ship" speed="13.89" length="14.63" shape="1443.39,953.18 1447.41,967.25"/>
    </edge>
    <edge id=":1395538132_8" function="internal">
        <lane id=":1395538132_8_0" index="0" disallow="tram rail_urban rail rail_electric rail_fast ship" speed="3.65" length="2.34" shape="1443.39,953.18 1442.92,954.54 1442.24,955.13"/>
    </edge>
    <edge id=":1395538132_11" function="internal">
        <lane id=":1395538132_11_0" index="0" disallow="tram rail_urban rail rail_electric rail_fast ship" speed="3.65" length="2.34" shape="1442.24,955.13 1441.37,954.95 1440.29,953.99"/>
    </edge>
    <edge id=":1395538136_0" function="internal">
        <lane id=":1395538136_0_0" index="0" disallow="tram rail_urban rail rail_electric rail_fast ship" speed="13.89" length="14.81" shape="1540.98,1045.39 1527.54,1051.62"/>
    </edge>
    <edge id=":1395538136_1" function="internal">
        <lane id=":1395538136_1_0" index="0" disallow="tram rail_urban rail rail_electric rail_fast ship" speed="8.27" length="6.20" shape="1540.98,1045.39 1537.37,1046.60 1534.98,1046.41"/>
    </edge>
    <edge id=":1395538136_2" function="internal">
        <lane id=":1395538136_2_0" index="0" disallow="tram rail_urban rail rail_electric rail_fast ship" speed="3.65" length="2.34" shape="1540.98,1045.39 1539.54,1045.23 1538.82,1044.70"/>
    </edge>
    <edge id=":1395538136_9" function="internal">
        <lane id=":1395538136_9_0" index="0" disallow="tram rail_urban rail rail_electric rail_fast ship" speed="8.27" length="8.31" shape="1534.98,1046.41 1534.12,1046.34 1531.24,1044.61 1528.71,1041.39"/>
    </edge>
    <edge id=":1395538136_10" function="internal">
        <lane id=":1395538136_10_0" index="0" disallow="tram rail_urban rail rail_electric rail_fast ship" speed="3.65" length="2.34" shape="1538.82,1044.70 1538.81,1043.81 1539.51,1042.54"/>
    </edge>
    <edge id=":1395538136_3" function="internal">
        <lane id=":1395538136_3_0" index="0" disallow="tram rail_urban rail rail_electric rail_fast ship" speed="6.83" length="9.58" shape="1531.46,1039.76 1533.15,1041.92 1535.05,1043.11 1537.17,1043.32 1539.51,1042.54"/>
    </edge>
    <edge id=":1395538136_4" function="internal">
        <lane id=":1395538136_4_0" index="0" disallow="tram rail_urban rail rail_electric rail_fast ship" speed="7.77" length="14.75" shape="1531.46,1039.76 1533.04,1043.57 1532.91,1046.82 1531.08,1049.50 1527.54,1051.62"/>
    </edge>
    <edge id=":1395538136_5" function="internal">
        <lane id=":1395538136_5_0" index="0" disallow="tram rail_urban rail rail_electric rail_fast ship" speed="3.65" length="4.67" shape="1531.46,1039.76 1531.39,1041.20 1530.90,1041.95 1530.01,1042.02 1528.71,1041.39"/>
    </edge>
    <edge id=":1395538136_6" function="internal">
        <lane id=":1395538136_6_0" index="0" disallow="tram rail_urban rail rail_electric rail_fast ship" speed="6.22" length="9.05" shape="1526.31,1048.67 1528.48,1047.37 1529.60,1045.72 1529.68,1043.73 1528.71,1041.39"/>
    </edge>
    <edge id=":1395538136_7" function="internal">
        <lane id=":1395538136_7_0" index="0" disallow="tram rail_urban rail rail_electric rail_fast ship" speed="13.89" length="14.56" shape="1526.31,1048.67 1539.51,1042.54"/>
    </edge>
    <edge id=":1395538136_8" function="internal">
        <lane id=":1395538136_8_0" index="0" disallow="tram rail_urban rail rail_electric rail_fast ship" speed="3.65" length="2.34" shape="1526.31,1048.67 1527.72,1048.95 1528.40,1049.53"/>
    </edge>
    <edge id=":1395538136_11" function="internal">
        <lane id=":1395538136_11_0" index="0" disallow="tram rail_urban rail rail_electric rail_fast ship" speed="3.65" length="2.34" shape="1528.40,1049.53 1528.34,1050.42 1527.54,1051.62"/>
    </edge>
    <edge id=":1396608579_0" function="internal">
        <lane id=":1396608579_0_0" index="0" disallow="tram rail_urban rail rail_electric rail_fast ship" speed="7.35" length="6.94" shape="1427.18,1010.00 1425.31,1010.15 1423.71,1010.70 1422.36,1011.65 1421.27,1012.99"/>
    </edge>
    <edge id=":1396608579_1" function="internal">
        <lane id=":1396608579_1_0" index="0" disallow="tram rail_urban rail rail_electric rail_fast ship" speed="8.17" length="10.56" shape="1427.18,1010.00 1424.43,1009.60 1422.17,1008.51 1420.40,1006.74 1419.11,1004.28"/>
    </edge>
    <edge id=":1396608579_2" function="internal">
        <lane id=":1396608579_2_0" index="0" disallow="tram rail_urban rail rail_electric rail_fast ship" speed="3.65" length="4.67" shape="1427.18,1010.00 1425.99,1009.17 1425.61,1008.37 1426.03,1007.57 1427.24,1006.80"/>
    </edge>
    <edge id=":1396608579_3" function="internal">
        <lane id=":1396608579_3_0" index="0" disallow="tram rail_urban rail rail_electric rail_fast ship" speed="6.64" length="6.72" shape="1422.11,1003.16 1422.93,1004.72 1424.06,1005.85 1425.49,1006.54 1427.24,1006.80"/>
    </edge>
    <edge id=":1396608579_4" function="internal">
        <lane id=":1396608579_4_0" index="0" disallow="tram rail_urban rail rail_electric rail_fast ship" speed="9.49" length="10.23" shape="1422.11,1003.16 1422.80,1005.77 1422.89,1008.28 1422.38,1010.68 1421.27,1012.99"/>
    </edge>
    <edge id=":1396608579_5" function="internal">
        <lane id=":1396608579_5_0" index="0" disallow="tram rail_urban rail rail_electric rail_fast ship" speed="3.65" length="2.49" shape="1422.11,1003.16 1421.78,1004.56 1421.17,1005.22 1421.01,1005.20"/>
    </edge>
    <edge id=":1396608579_9" function="internal">
        <lane id=":1396608579_9_0" index="0" disallow="tram rail_urban rail rail_electric rail_fast ship" speed="3.65" length="2.18" shape="1421.01,1005.20 1420.28,1005.12 1419.11,1004.28"/>
    </edge>
    <edge id=":1396608579_6" function="internal">
        <lane id=":1396608579_6_0" index="0" disallow="tram rail_urban rail rail_electric rail_fast ship" speed="8.09" length="7.29" shape="1418.56,1011.28 1419.34,1009.66 1419.69,1007.95 1419.61,1006.16 1419.11,1004.28"/>
    </edge>
    <edge id=":1396608579_7" function="internal">
        <lane id=":1396608579_7_0" index="0" disallow="tram rail_urban rail rail_electric rail_fast ship" speed="8.82" length="3.83" shape="1418.56,1011.28 1420.18,1009.28 1421.20,1008.56"/>
    </edge>
    <edge id=":1396608579_8" function="internal">
        <lane id=":1396608579_8_0" index="0" disallow="tram rail_urban rail rail_electric rail_fast ship" speed="3.65" length="2.14" shape="1418.56,1011.28 1419.87,1010.69 1420.57,1010.76"/>
    </edge>
    <edge id=":1396608579_10" function="internal">
        <lane id=":1396608579_10_0" index="0" disallow="tram rail_urban rail rail_electric rail_fast ship" speed="8.82" length="6.42" shape="1421.20,1008.56 1422.17,1007.86 1424.53,1007.04 1427.24,1006.80"/>
    </edge>
    <edge id=":1396608579_11" function="internal">
        <lane id=":1396608579_11_0" index="0" disallow="tram rail_urban rail rail_electric rail_fast ship" speed="3.65" length="2.54" shape="1420.57,1010.76 1420.76,1010.78 1421.23,1011.54 1421.27,1012.99"/>
    </edge>
    <edge id=":1396608582_0" function="internal">
        <lane id=":1396608582_0_0" index="0" disallow="tram rail_urban rail rail_electric rail_fast ship" speed="6.50" length="9.03" shape="1462.04,1010.48 1460.63,1008.44 1458.91,1007.35 1456.87,1007.20 1454.53,1008.00"/>
    </edge>
    <edge id=":1396608582_1" function="internal">
        <lane id=":1396608582_1_0" index="0" disallow="tram rail_urban rail rail_electric rail_fast ship" speed="13.89" length="14.29" shape="1462.04,1010.48 1456.07,997.49"/>
    </edge>
    <edge id=":1396608582_2" function="internal">
        <lane id=":1396608582_2_0" index="0" disallow="tram rail_urban rail rail_electric rail_fast ship" speed="3.65" length="2.34" shape="1462.04,1010.48 1462.22,1009.05 1462.75,1008.33"/>
    </edge>
    <edge id=":1396608582_9" function="internal">
        <lane id=":1396608582_9_0" index="0" disallow="tram rail_urban rail rail_electric rail_fast ship" speed="3.65" length="2.34" shape="1462.75,1008.33 1463.65,1008.33 1464.90,1009.05"/>
    </edge>
    <edge id=":1396608582_3" function="internal">
        <lane id=":1396608582_3_0" index="0" disallow="tram rail_urban rail rail_electric rail_fast ship" speed="13.89" length="14.08" shape="1459.02,996.26 1464.90,1009.05"/>
    </edge>
    <edge id=":1396608582_4" function="internal">
        <lane id=":1396608582_4_0" index="0" disallow="tram rail_urban rail rail_electric rail_fast ship" speed="8.20" length="5.51" shape="1459.02,996.26 1459.97,999.92 1459.73,1001.63"/>
    </edge>
    <edge id=":1396608582_5" function="internal">
        <lane id=":1396608582_5_0" index="0" disallow="tram rail_urban rail rail_electric rail_fast ship" speed="3.65" length="2.34" shape="1459.02,996.26 1458.75,997.67 1458.16,998.35"/>
    </edge>
    <edge id=":1396608582_10" function="internal">
        <lane id=":1396608582_10_0" index="0" disallow="tram rail_urban rail rail_electric rail_fast ship" speed="8.20" length="8.61" shape="1459.73,1001.63 1459.53,1003.10 1457.72,1005.79 1454.53,1008.00"/>
    </edge>
    <edge id=":1396608582_11" function="internal">
        <lane id=":1396608582_11_0" index="0" disallow="tram rail_urban rail rail_electric rail_fast ship" speed="3.65" length="2.34" shape="1458.16,998.35 1457.27,998.29 1456.07,997.49"/>
    </edge>
    <edge id=":1396608582_6" function="internal">
        <lane id=":1396608582_6_0" index="0" disallow="tram rail_urban rail rail_electric rail_fast ship" speed="6.74" length="9.22" shape="1453.08,1005.14 1455.18,1003.70 1456.38,1001.94 1456.68,999.87 1456.07,997.49"/>
    </edge>
    <edge id=":1396608582_7" function="internal">
        <lane id=":1396608582_7_0" index="0" disallow="tram rail_urban rail rail_electric rail_fast ship" speed="7.99" length="14.21" shape="1453.08,1005.14 1456.77,1003.89 1459.97,1004.13 1462.68,1005.84 1464.90,1009.05"/>
    </edge>
    <edge id=":1396608582_8" function="internal">
        <lane id=":1396608582_8_0" index="0" disallow="tram rail_urban rail rail_electric rail_fast ship" speed="3.65" length="4.67" shape="1453.08,1005.14 1454.51,1005.32 1455.23,1005.85 1455.23,1006.74 1454.53,1008.00"/>
    </edge>
    <edge id=":1396608583_0" function="internal">
        <lane id=":1396608583_0_0" index="0" disallow="tram rail_urban rail rail_electric rail_fast ship" speed="13.89" length="10.21" shape="1440.75,1019.69 1439.56,1016.90 1438.63,1014.99 1437.33,1013.37 1435.04,1011.47"/>
    </edge>
    <edge id=":1396608583_1" function="internal">
        <lane id=":1396608583_1_0" index="0" disallow="tram rail_urban rail rail_electric rail_fast ship" speed="7.76" length="5.04" shape="1440.75,1019.69 1439.89,1016.50 1440.15,1014.78"/>
    </edge>
    <edge id=":1396608583_2" function="internal">
        <lane id=":1396608583_2_0" index="0" disallow="tram rail_urban rail rail_electric rail_fast ship" speed="3.66" length="2.15" shape="1440.75,1019.69 1441.15,1018.30 1441.65,1017.81"/>
    </edge>
    <edge id=":1396608583_9" function="internal">
        <lane id=":1396608583_9_0" index="0" disallow="tram rail_urban rail rail_electric rail_fast ship" speed="7.76" length="7.72" shape="1440.15,1014.78 1440.32,1013.69 1442.04,1011.26 1445.05,1009.21"/>
    </edge>
    <edge id=":1396608583_10" function="internal">
        <lane id=":1396608583_10_0" index="0" disallow="tram rail_urban rail rail_electric rail_fast ship" speed="3.66" length="2.55" shape="1441.65,1017.81 1441.79,1017.67 1442.68,1017.81 1443.81,1018.71"/>
    </edge>
    <edge id=":1396608583_3" function="internal">
        <lane id=":1396608583_3_0" index="0" disallow="tram rail_urban rail rail_electric rail_fast ship" speed="6.30" length="8.08" shape="1446.50,1012.07 1444.60,1013.36 1443.52,1014.90 1443.26,1016.68 1443.81,1018.71"/>
    </edge>
    <edge id=":1396608583_4" function="internal">
        <lane id=":1396608583_4_0" index="0" disallow="tram rail_urban rail rail_electric rail_fast ship" speed="9.11" length="12.13" shape="1446.50,1012.07 1443.40,1013.24 1440.46,1013.53 1437.67,1012.94 1435.04,1011.47"/>
    </edge>
    <edge id=":1396608583_5" function="internal">
        <lane id=":1396608583_5_0" index="0" disallow="tram rail_urban rail rail_electric rail_fast ship" speed="3.65" length="4.67" shape="1446.50,1012.07 1445.06,1011.90 1444.35,1011.36 1444.34,1010.47 1445.05,1009.21"/>
    </edge>
    <edge id=":1396608583_6" function="internal">
        <lane id=":1396608583_6_0" index="0" disallow="tram rail_urban rail rail_electric rail_fast ship" speed="7.74" length="8.57" shape="1436.95,1008.91 1438.78,1009.91 1440.74,1010.30 1442.83,1010.07 1445.05,1009.21"/>
    </edge>
    <edge id=":1396608583_7" function="internal">
        <lane id=":1396608583_7_0" index="0" disallow="tram rail_urban rail rail_electric rail_fast ship" speed="13.89" length="12.15" shape="1436.95,1008.91 1439.43,1011.06 1441.12,1013.22 1442.45,1015.67 1443.81,1018.71"/>
    </edge>
    <edge id=":1396608583_8" function="internal">
        <lane id=":1396608583_8_0" index="0" disallow="tram rail_urban rail rail_electric rail_fast ship" speed="3.65" length="2.34" shape="1436.95,1008.91 1437.43,1010.27 1437.28,1011.15"/>
    </edge>
    <edge id=":1396608583_11" function="internal">
        <lane id=":1396608583_11_0" index="0" disallow="tram rail_urban rail rail_electric rail_fast ship" speed="3.65" length="2.34" shape="1437.28,1011.15 1436.48,1011.55 1435.04,1011.47"/>
    </edge>
    <edge id=":1396608587_0" function="internal">
        <lane id=":1396608587_0_0" index="0" disallow="tram rail_urban rail rail_electric rail_fast ship" speed="13.89" length="10.87" shape="1454.72,1092.51 1452.26,1094.41 1450.31,1095.66 1448.25,1096.76 1445.48,1098.18"/>
    </edge>
    <edge id=":1396608587_1" function="internal">
        <lane id=":1396608587_1_0" index="0" disallow="tram rail_urban rail rail_electric rail_fast ship" speed="6.86" length="3.65" shape="1454.72,1092.51 1452.57,1093.48 1451.33,1093.12"/>
    </edge>
    <edge id=":1396608587_2" function="internal">
        <lane id=":1396608587_2_0" index="0" disallow="tram rail_urban rail rail_electric rail_fast ship" speed="3.65" length="2.34" shape="1454.72,1092.51 1453.29,1092.65 1452.47,1092.28"/>
    </edge>
    <edge id=":1396608587_9" function="internal">
        <lane id=":1396608587_9_0" index="0" disallow="tram rail_urban rail rail_electric rail_fast ship" speed="6.86" length="8.42" shape="1451.33,1093.12 1450.41,1092.85 1448.26,1090.63 1446.11,1086.82"/>
    </edge>
    <edge id=":1396608587_10" function="internal">
        <lane id=":1396608587_10_0" index="0" disallow="tram rail_urban rail rail_electric rail_fast ship" speed="3.65" length="2.34" shape="1452.47,1092.28 1452.28,1091.41 1452.70,1090.03"/>
    </edge>
    <edge id=":1396608587_3" function="internal">
        <lane id=":1396608587_3_0" index="0" disallow="tram rail_urban rail rail_electric rail_fast ship" speed="5.14" length="6.24" shape="1449.01,1085.47 1450.20,1087.81 1451.21,1089.35 1452.05,1090.09 1452.70,1090.03"/>
    </edge>
    <edge id=":1396608587_4" function="internal">
        <lane id=":1396608587_4_0" index="0" disallow="tram rail_urban rail rail_electric rail_fast ship" speed="8.32" length="14.89" shape="1449.01,1085.47 1450.32,1089.54 1450.17,1093.01 1448.55,1095.89 1445.48,1098.18"/>
    </edge>
    <edge id=":1396608587_5" function="internal">
        <lane id=":1396608587_5_0" index="0" disallow="tram rail_urban rail rail_electric rail_fast ship" speed="3.65" length="4.67" shape="1449.01,1085.47 1448.79,1086.89 1448.24,1087.59 1447.34,1087.57 1446.11,1086.82"/>
    </edge>
    <edge id=":1396608587_6" function="internal">
        <lane id=":1396608587_6_0" index="0" disallow="tram rail_urban rail rail_electric rail_fast ship" speed="6.89" length="9.90" shape="1443.99,1095.34 1445.96,1093.85 1446.97,1091.93 1447.02,1089.59 1446.11,1086.82"/>
    </edge>
    <edge id=":1396608587_7" function="internal">
        <lane id=":1396608587_7_0" index="0" disallow="tram rail_urban rail rail_electric rail_fast ship" speed="13.89" length="10.23" shape="1443.99,1095.34 1446.68,1093.98 1448.56,1093.00 1450.33,1091.87 1452.70,1090.03"/>
    </edge>
    <edge id=":1396608587_8" function="internal">
        <lane id=":1396608587_8_0" index="0" disallow="tram rail_urban rail rail_electric rail_fast ship" speed="3.65" length="2.34" shape="1443.99,1095.34 1445.43,1095.50 1446.15,1096.02"/>
    </edge>
    <edge id=":1396608587_11" function="internal">
        <lane id=":1396608587_11_0" index="0" disallow="tram rail_urban rail rail_electric rail_fast ship" speed="3.65" length="2.34" shape="1446.15,1096.02 1446.17,1096.91 1445.48,1098.18"/>
    </edge>
    <edge id=":1396608592_0" function="internal">
        <lane id=":1396608592_0_0" index="0" disallow="tram rail_urban rail rail_electric rail_fast ship" speed="3.65" length="4.67" shape="1417.24,1358.31 1417.12,1359.75 1416.62,1360.49 1415.73,1360.53 1414.44,1359.87"/>
    </edge>
    <edge id=":1671468505_0" function="internal">
        <lane id=":1671468505_0_0" index="0" disallow="tram rail_urban rail rail_electric rail_fast ship" speed="3.65" length="4.67" shape="1548.08,1038.13 1549.51,1038.29 1550.23,1038.82 1550.24,1039.71 1549.54,1040.97"/>
    </edge>
    <edge id=":2003905531_0" function="internal">
        <lane id=":2003905531_0_0" index="0" disallow="tram rail_urban rail rail_electric rail_fast ship" speed="6.54" length="9.30" shape="1385.78,1302.64 1384.85,1300.57 1383.30,1299.34 1381.12,1298.95 1378.31,1299.39"/>
    </edge>
    <edge id=":2003905531_1" function="internal">
        <lane id=":2003905531_1_0" index="0" disallow="tram rail_urban rail rail_electric rail_fast ship" speed="13.89" length="17.34" shape="1385.78,1302.64 1381.44,1285.86"/>
    </edge>
    <edge id=":2003905531_2" function="internal">
        <lane id=":2003905531_2_0" index="0" disallow="tram rail_urban rail rail_electric rail_fast ship" speed="8.35" length="5.68" shape="1385.78,1302.64 1385.58,1298.65 1385.98,1297.01"/>
    </edge>
    <edge id=":2003905531_3" function="internal">
        <lane id=":2003905531_3_0" index="0" disallow="tram rail_urban rail rail_electric rail_fast ship" speed="3.65" length="2.34" shape="1385.78,1302.64 1386.27,1301.28 1386.95,1300.70"/>
    </edge>
    <edge id=":2003905531_16" function="internal">
        <lane id=":2003905531_16_0" index="0" disallow="tram rail_urban rail rail_electric rail_fast ship" speed="8.35" length="10.15" shape="1385.98,1297.01 1386.61,1294.44 1388.68,1290.95 1391.58,1289.09"/>
    </edge>
    <edge id=":2003905531_17" function="internal">
        <lane id=":2003905531_17_0" index="0" disallow="tram rail_urban rail rail_electric rail_fast ship" speed="3.65" length="2.34" shape="1386.95,1300.70 1387.82,1300.89 1388.89,1301.86"/>
    </edge>
    <edge id=":2003905531_4" function="internal">